gem5 Simulator System.  http://gem5.org
gem5 is copyrighted software; use the --copyright option for details.

gem5 compiled Jan 20 2020 13:24:00
gem5 started Jan 20 2020 19:45:36
gem5 executing on node-0.yangzhou-qv63200.lambda-mpi-pg0.clemson.cloudlab.us, pid 9060
command line: build/ARM/gem5.fast --remote-gdb-port=0 --outdir=/users/yangzhou/gem5/sgx_nic/m5out/nic --stats-file=DerivO3CPU_nat-tcp-v4.maglev.lpm.monitoring_stats.txt configs/example/se_nic.py --interp-dir /usr/aarch64-linux-gnu --redirects /lib=/usr/aarch64-linux-gnu/lib -c 'nat-tcp-v4;maglev;lpm;monitoring' --cpu-type=DerivO3CPU --cpu-clock=2.4GHz --asic-clock=0.56GHz --cacheline_size=128 --caches --l2cache --l2_size=4MB --l2_assoc=16 --mem-size=128GB --mem-type=DDR3_1600_8x8 --mem-channels=2 --mem-ranks=2 --fast-forward=1308843841 --maxinsts=5549785729 --abs-max-tick=2000000000000000

['nat-tcp-v4', 'maglev', 'lpm', 'monitoring']
{'maglev': [1], 'lpm': [2], 'monitoring': [3], 'nat-tcp-v4': [0]} 4 4
Setting the interpreter path to: /usr/aarch64-linux-gnu 
For dynamically linked applications you might still need to setup the --redirects so that libraries are found

Global frequency set at 1000000000000 ticks per second
Switch at instruction count:1308843841
Receiving started
Receiving started
Receiving started
Receiving started
Receiving port Simulate queue
Running 1 pipelines
Running 1 pipelines
Running 1 pipelines
Running 1 pipelines
trying to open file /users/yangzhou/ictf2010.dat
trying to open file /users/yangzhou/ictf2010.dat
trying to open file /users/yangzhou/ictf2010.dat
opening succeeds
opening succeeds
opening succeeds
trying to open file /users/yangzhou/ictf2010.dat
opening succeeds
Generating permutations
Generating LUT
Done Generating LUT
monitoring packets processed: 65536
maglev packets processed: 65536
nat-tcp-v4 packets processed: 65536
monitoring packets processed: 131072
maglev packets processed: 131072
monitoring packets processed: 196608
maglev packets processed: 196608
lpm packets processed: 65536
monitoring packets processed: 262144
lpm packets processed: 131072
maglev packets processed: 262144
nat-tcp-v4 packets processed: 131072
lpm packets processed: 196608
monitoring packets processed: 327680
maglev packets processed: 327680
nat-tcp-v4 packets processed: 196608
lpm packets processed: 262144
monitoring packets processed: 393216
lpm packets processed: 327680
maglev packets processed: 393216
nat-tcp-v4 packets processed: 262144
lpm packets processed: 393216
monitoring packets processed: 458752
maglev packets processed: 458752
nat-tcp-v4 packets processed: 327680
lpm packets processed: 458752
monitoring packets processed: 524288
lpm packets processed: 524288
maglev packets processed: 524288
nat-tcp-v4 packets processed: 393216
lpm packets processed: 589824
monitoring packets processed: 589824
maglev packets processed: 589824
lpm packets processed: 655360
nat-tcp-v4 packets processed: 458752
lpm packets processed: 720896
monitoring packets processed: 655360
maglev packets processed: 655360
nat-tcp-v4 packets processed: 524288
lpm packets processed: 786432
monitoring packets processed: 720896
maglev packets processed: 720896
lpm packets processed: 851968
nat-tcp-v4 packets processed: 589824
lpm packets processed: 917504
monitoring packets processed: 786432
maglev packets processed: 786432
nat-tcp-v4 packets processed: 655360
lpm packets processed: 983040
monitoring packets processed: 851968
lpm packets processed: 1048576
maglev packets processed: 851968
nat-tcp-v4 packets processed: 720896
lpm packets processed: 1114112
monitoring packets processed: 917504
maglev packets processed: 917504
nat-tcp-v4 packets processed: 786432
lpm packets processed: 1179648
monitoring packets processed: 983040
lpm packets processed: 1245184
maglev packets processed: 983040
nat-tcp-v4 packets processed: 851968
lpm packets processed: 1310720
monitoring packets processed: 1048576
nat-tcp-v4 packets processed: 917504
maglev packets processed: 1048576
lpm packets processed: 1376256
monitoring packets processed: 1114112
lpm packets processed: 1441792
nat-tcp-v4 packets processed: 983040
maglev packets processed: 1114112
lpm packets processed: 1507328
Switched CPUS @ tick 615071530977
switching cpus
**** REAL SIMULATION ****
monitoring packets processed: 1179648
nat-tcp-v4 packets processed: 1048576
maglev packets processed: 1179648
lpm packets processed: 1572864
monitoring packets processed: 1245184
lpm packets processed: 1638400
nat-tcp-v4 packets processed: 1114112
maglev packets processed: 1245184
lpm packets processed: 1703936
monitoring packets processed: 1310720
nat-tcp-v4 packets processed: 1179648
lpm packets processed: 1769472
Exiting @ tick 655278022959 because user interrupt received
